
**** 09/15/21 23:21:11 ******* PSpice Lite (March 2016) ******* ID# 10813 ****

 ** Profile: "SCHEMATIC1-G6_Lab_1_Haroutun_Case_2"  [ C:\Users\Harry\Desktop\CSUN\Fall 2021 CSUN\ECE 442L\ECE 442L Lab 1\case2\g6_lab


 ****     CIRCUIT DESCRIPTION


******************************************************************************




** Creating circuit file "G6_Lab_1_Haroutun_Case_2.cir" 
** WARNING: THIS AUTOMATICALLY GENERATED FILE MAY BE OVERWRITTEN BY SUBSEQUENT SIMULATIONS

*Libraries: 
* Profile Libraries :
* Local Libraries :
* From [PSPICE NETLIST] section of C:\Users\Harry\AppData\Roaming\SPB_Data\cdssetup\OrCAD_PSpice\17.2.0\PSpice.ini file:
.lib "nomd.lib" 

*Analysis directives: 
.TRAN  0 15us 0 
.OPTIONS ADVCONV
.PROBE64 V(alias(*)) I(alias(*)) W(alias(*)) D(alias(*)) NOISE(alias(*)) 
.INC "..\SCHEMATIC1.net" 



**** INCLUDING SCHEMATIC1.net ****
* source G6_LAB_1_HAROUTUN_CASE_2
V_V1         N00194 0  
+PULSE 0V 5V 0 5us 0 0 5us
M_M1         N00290 N00194 0 0 MbreakN           
M_M2         N00278 N00194 N00290 N00278 MbreakP           
V_V2         N00278 0 5Vdc

**** RESUMING G6_Lab_1_Haroutun_Case_2.cir ****
.END

**** 09/15/21 23:21:11 ******* PSpice Lite (March 2016) ******* ID# 10813 ****

 ** Profile: "SCHEMATIC1-G6_Lab_1_Haroutun_Case_2"  [ C:\Users\Harry\Desktop\CSUN\Fall 2021 CSUN\ECE 442L\ECE 442L Lab 1\case2\g6_lab


 ****     MOSFET MODEL PARAMETERS


******************************************************************************




               MbreakN         MbreakP         
               NMOS            PMOS            
       LEVEL    1               1            
           L  100.000000E-06  100.000000E-06 
           W  100.000000E-06  100.000000E-06 
         VTO    0               0            
          KP   20.000000E-06   20.000000E-06 
       GAMMA    0               0            
         PHI     .6              .6          
      LAMBDA    0               0            
          IS   10.000000E-15   10.000000E-15 
          JS    0               0            
          PB     .8              .8          
        PBSW     .8              .8          
          CJ    0               0            
        CJSW    0               0            
        CGSO    0               0            
        CGDO    0               0            
        CGBO    0               0            
         TOX    0               0            
          XJ    0               0            
       UCRIT   10.000000E+03   10.000000E+03 
      DIOMOD    1               1            
         VFB    0               0            
        LETA    0               0            
        WETA    0               0            
          U0    0               0            
        TEMP    0               0            
         VDD    5               5            
       XPART    0               0            


WARNING(ORPSIM-15452): Pulse Period < (Rise Time + Fall Time + Pulse Width) for V_V1.

**** 09/15/21 23:21:11 ******* PSpice Lite (March 2016) ******* ID# 10813 ****

 ** Profile: "SCHEMATIC1-G6_Lab_1_Haroutun_Case_2"  [ C:\Users\Harry\Desktop\CSUN\Fall 2021 CSUN\ECE 442L\ECE 442L Lab 1\case2\g6_lab


 ****     INITIAL TRANSIENT SOLUTION       TEMPERATURE =   27.000 DEG C


******************************************************************************



 NODE   VOLTAGE     NODE   VOLTAGE     NODE   VOLTAGE     NODE   VOLTAGE


(N00194)    0.0000 (N00278)    5.0000 (N00290)    5.0000 




    VOLTAGE SOURCE CURRENTS
    NAME         CURRENT

    V_V1         0.000E+00
    V_V2        -5.010E-12

    TOTAL POWER DISSIPATION   2.51E-11  WATTS



          JOB CONCLUDED

**** 09/15/21 23:21:11 ******* PSpice Lite (March 2016) ******* ID# 10813 ****

 ** Profile: "SCHEMATIC1-G6_Lab_1_Haroutun_Case_2"  [ C:\Users\Harry\Desktop\CSUN\Fall 2021 CSUN\ECE 442L\ECE 442L Lab 1\case2\g6_lab


 ****     JOB STATISTICS SUMMARY


******************************************************************************



  License check-out time            =       49.16
  Total job time (using Solver 1)   =         .03
